  17 'GENROU'  1  6.885600  0.055000  1.076300  0.040200  3.881907  0.000000  2.335400
  2.214600  0.329800  0.605100  0.237300  0.178400  0.097300  2.376500  /
  17 'IEEET1'  1  0.06  25  0.0587  1  -1  0  0.5  0.0946  1  0  3.4367  0.1388  4.5822  0.4038  /
  17 'IEEEG1'  1 0 0  20  0.2  0  0.2  0.1  -0.1  1.1421  0  0.4566  1  0  0  0.4  0  0  0  0  0  0  0  /
  17 'IEEEST'  1  1  0  1.013  0.013  0  0  1.013  0.113  0  0.02  0  0  1.65  1.65  3  0.1  -0.1  0  0  /
  18 'GENROU'  1  6.370300  0.038000  1.077500  0.050400  1.691848  0.000000  2.043200
  1.942200  0.378800  0.638200  0.271700  0.205100  0.141200  3.340700  /
  18 'EXAC1'  1  0  0  0  2876  0.02  7.4004  -7.4004  1.1  0.035  1  0.2556  0.5  1  3.6535  0.0662  4.8714  0.3309  /
  18 'IEEEG1'  1 0 0  20  0  0  0.15  1  -1  0.6543  0  0.4259  1  0  10  0  0  0.5  0.3  0  0  0  0  /
  18 'IEEEST'  1  1  0  1.013  0.013  0  0  1.013  0.113  0  0.02  0  0  1.65  1.65  3  0.1  -0.1  0  0  /
  26 'GENROU'  1  8.197600  0.026200  1.173400  0.073300  4.122706  0.000000  1.885400
  1.795200  0.347100  0.294100  0.249400  0.187800  0.029400  0.881300  /
  26 'IEEET1'  1  0.02  25  0.2  1  -1  0  0.4628  0.08  1  0  2.126  0.1145  2.8347  0.3765  /
  26 'IEEEG1'  1 0 0  20  0.2085  0  0.2  0.3242  -0.3242  1.5164  0  0.4064  0.2512  0  0  0.4408  0  0  0  0  0  0  0  /
  26 'IEEEST'  1  1  0  1.013  0.013  0  0  1.013  0.113  0  0.02  0  0  1.65  1.65  3  0.1  -0.1  0  0  /
  26 'GENROU'  2  5.409600  0.057100  0.932100  0.050000  2.347165  0.000000  2.214600
  2.102000  0.253900  0.230000  0.184100  0.137100  0.086000  2.127000  /
  26 'ESST4B'  2  0  56.1765  1.203  1  -1  0.01  1  0  1  -1  0  4.2428  0  7.2024  0.0608  0  0  /
  26 'IEEEG1'  2 0 0  20  0  0  0.5  0.1  -0.1  1.6222  0  0.1159  0.2888  0  6.8889  0.5795  0  0  0  0  0  0  0  /
  26 'IEEEST'  2  1  0  1.013  0.013  0  0  1.013  0.113  0  0.02  0  0  1.65  1.65  3  0.1  -0.1  0  0  /
  27 'GENROU'  1  7.486200  0.021600  1.041800  0.071800  2.446916  0.000000  1.976200
  1.879800  0.229300  0.339900  0.166900  0.123700  0.084200  2.087200  /
  27 'ESAC6A'  1  0.02  429.503  17.7488  5  0.23  0.2  9.08  -9.08  9.08  -9.08  0.5  0  0  10  0  0  0  0  1  4.7207  0.0262  6.2943  0.175  /
  27 'IEEEG1'  1 0 0  15.1111  0.279  0  0.2  0.1  -0.1  0.782  0  0.1193  0.323  0  0.2982  0.2338  0  0.4  0.3  0  0  0  0  /
  27 'IEEEST'  1  1  0  1.013  0.013  0  0  1.013  0.113  0  0.02  0  0  1.65  1.65  3  0.1  -0.1  0  0  /
  27 'GENROU'  2  6.533200  0.024000  0.588600  0.051600  2.972790  0.000000  1.868600
  1.779600  0.266600  0.689700  0.193000  0.144000  0.098400  2.399300  /
  27 'IEEET1'  2  0  400  0.2  1  -1  0  0.5  0.1147  1  0  2.9447  0.0951  3.9263  0.3548  /
  27 'IEEEG1'  2 0 0  25  0.2  0  0.15  0.1  -0.1  0.6107  0  0.3559  0.3316  0  8.511  0.4449  0  0  0  0  0  0  0  /
  27 'IEEEST'  2  1  0  1.013  0.013  0  0  1.013  0.113  0  0.02  0  0  1.65  1.65  3  0.1  -0.1  0  0  /
  27 'GENROU'  3  6.746100  0.051700  0.945900  0.071600  2.041721  0.000000  2.007200
  1.908700  0.337400  0.754300  0.242600  0.182500  0.081900  2.035900  /
  27 'IEEET1'  3  0  400  0.0232  7  -7  0  0.5  0.0559  0.35  0  3.6167  0.0738  4.8223  0.3309  /
  27 'IEEEG1'  3 0 0  16.3934  0  0  0.3  0.1  -0.1  1.1248  0  0.2603  0.2778  0  10  0.2611  0  0.4  0.3281  0  0  0  0  /
  27 'IEEEST'  3  1  0  1.013  0.013  0  0  1.013  0.113  0  0.02  0  0  1.65  1.65  3  0.1  -0.1  0  0  /
  28 'GENROU'  1  7.202600  0.057700  0.996200  0.065000  3.750858  0.000000  1.798000
  1.713700  0.355700  0.775900  0.255400  0.192500  0.082600  2.051300  /
  28 'ESAC1A'  1  0  0  0  750  0.1  12.9442  -12.9442  1.0245  0.015  1  0.2  0.4  1  2.0019  0.0243  2.6691  0.2189  9  -9  /
  28 'IEEEG1'  1 0 0  20  0.2979  0  0.5  0.1  -0.1  0.8818  0  0.4829  0.3303  0  2.9824  0.4955  0  0  0  0  0  0  0  /
  28 'IEEEST'  1  1  0  1.013  0.013  0  0  1.013  0.113  0  0.02  0  0  1.65  1.65  3  0.1  -0.1  0  0  /
  28 'GENROU'  2  4.010600  0.042100  1.356300  0.071900  2.212315  0.000000  2.355200
  2.233100  0.210700  0.778500  0.153800  0.113600  0.129400  3.081700  /
  28 'IEEET1'  2  0  25  0.0496  7  -7  0  0.5  0.0879  1  0  2.1968  0.0261  2.929  0.2773  /
  28 'IEEEG1'  2 0 0  20  0  0  0.3  0.1  -0.1  1.0031  0  0.3409  0.2941  0  9.1649  0  0  0.4  0.3  0  0  0  0  /
  28 'IEEEST'  2  1  0  1.013  0.013  0  0  1.013  0.113  0  0.02  0  0  1.65  1.65  3  0.1  -0.1  0  0  /
  28 'GENROU'  3  8.505200  0.023800  1.302600  0.043700  3.428380  0.000000  2.312700
  2.193500  0.352900  0.265400  0.253500  0.191000  0.075200  1.888400  /
  28 'ESAC1A'  3  0.02  0  0  296.998  0.1  50  -50  0.9726  0.0255  1  0.2  1  1  3.8476  0.0796  5.1301  0.716  9  -9  /
  28 'IEEEG1'  3 0 0  12.9443  0.2968  0  0.15  0.2071  -0.2071  0.6295  0  0.1438  0.287  0  4.7175  0  0  0.4  0.4816  0  0  0  0  /
  28 'IEEEST'  3  1  0  1.013  0.013  0  0  1.013  0.113  0  0.02  0  0  1.65  1.65  3  0.1  -0.1  0  0  /
  29 'GENROU'  1  8.598200  0.035500  0.949600  0.077600  3.307690  0.000000  1.736300
  1.656200  0.273400  0.266700  0.197800  0.147700  0.094400  2.312000  /
  29 'ESAC6A'  1  0.02  523.606  21.9656  2  0.2218  0.9  100  -100  100  -100  0.5  100  0  1  0  0  0  0  1  4.2727  0.092  5.6969  0.6134  /
  29 'IEEEG1'  1 0 0  10  0.2164  0  0.1  2  -2  0.8179  0  0.446  0.3374  0  2.9261  0  0  0  0  0  0  0  0  /
  29 'IEEEST'  1  1  0  1.013  0.013  0  0  1.013  0.113  0  0.02  0  0  1.65  1.65  3  0.1  -0.1  0  0  /
  29 'GENROU'  2  4.601900  0.058500  0.799500  0.054100  3.122883  0.000000  1.734600
  1.654600  0.343100  0.390500  0.246600  0.185600  0.064900  1.661700  /
  29 'ESST4B'  2  0  26.4444  5.0502  6  -6  0.01  1  0  4.6  -4.6  0  5.2292  0  5.5994  0.0446  0  0  /
  29 'IEEEG1'  2 0 0  25  0.2  0  0.1  2  -2  0.6867  0  0.2848  0.2914  0  1.2648  0.1192  0  0.4  0.455  0  0  0  0  /
  29 'IEEEST'  2  1  0  1.013  0.013  0  0  1.013  0.113  0  0.02  0  0  1.65  1.65  3  0.1  -0.1  0  0  /
  29 'GENROU'  3  6.875200  0.026400  0.996800  0.052600  2.344236  0.000000  1.660100
  1.585200  0.304000  0.602300  0.219200  0.164400  0.102500  2.489600  /
  29 'ESST4B'  3  0  29.3079  3.6813  6  -6  0.01  1  0  1  -1  0  4.4883  0  5.5233  0.0648  0  0  /
  29 'IEEEG1'  3 0 0  20  0.2  0  0.1  0.1813  -0.1813  1.2485  0  0.1319  0.3003  0  10  0.4  0  0  0  0  0  0  0  /
  29 'IEEEST'  3  1  0  1.013  0.013  0  0  1.013  0.113  0  0.02  0  0  1.65  1.65  3  0.1  -0.1  0  0  /
  43 'GENROU'  1  4.978800  0.049500  0.707700  0.053500  3.904136  0.000000  2.321200
  2.201400  0.317600  0.296300  0.228800  0.171800  0.034000  0.984100  /
  43 'ESST4B'  1  0  2.6706  6.0462  1  -1  0.01  1  0  4.6  -4.6  0  4.0555  0  8.8404  0.0827  0  0  /
  43 'IEEEG1'  1 0 0  19.3321  0.3  0  0.1  0.416  -0.416  0.7762  0  0.4917  0.3286  0  8.2799  0.3432  0  0  0  0  0  0  0  /
  43 'IEEEST'  1  1  0  1.013  0.013  0  0  1.013  0.113  0  0.02  0  0  1.65  1.65  3  0.1  -0.1  0  0  /
  43 'GENROU'  2  9.134000  0.043600  0.554600  0.059700  1.711871  0.000000  2.339900
  2.218800  0.350900  0.758400  0.252100  0.189900  0.077500  1.939700  /
  43 'EXAC1'  2  0  0  0  400  0.02  5.298  -5.298  1.1  0.035  1  0.2613  0.5  1  1.8044  0.0447  2.4059  0.2235  /
  43 'IEEEG1'  2 0 0  12.4307  0.2888  0  0.3  0.1  -0.1  0.8136  0  0.3849  0.3382  0  6.2463  0  0  0  0  0  0  0  0  /
  43 'IEEEST'  2  1  0  1.013  0.013  0  0  1.013  0.113  0  0.02  0  0  1.65  1.65  3  0.1  -0.1  0  0  /
  43 'GENROU'  3  8.908400  0.027500  1.323400  0.057100  2.517162  0.000000  2.211700
  2.099400  0.503200  0.431900  0.358800  0.272800  0.179500  4.183600  /
  43 'IEEET1'  3  0  400  0.0276  1  -1  0  0.87  0.101  1  0  1.7918  0.11  2.389  0.3715  /
  43 'IEEEG1'  3 0 0  13.3469  0.2  0  0.1  2  -2  1.3851  0  0.3789  0.2654  0  0  0.2742  0  0  0  0  0  0  0  /
  43 'IEEEST'  3  1  0  1.013  0.013  0  0  1.013  0.113  0  0.02  0  0  1.65  1.65  3  0.1  -0.1  0  0  /
  44 'GENROU'  1  6.747300  0.022300  1.331600  0.043200  2.624827  0.000000  1.895600
  1.804700  0.374600  0.553200  0.268700  0.202800  0.107400  2.596900  /
  44 'ESST4B'  1  0  1.0869  1.7173  6  -6  0.01  1  0  1  -1  0  7.3656  0  8.1745  0.0314  0  0  /
  44 'IEEEG1'  1 0 0  14.1457  0.2  0  0.1  2  -2  0.5627  0  0.446  0.3456  0  0  0.2261  0  0  0  0  0  0  0  /
  44 'IEEEST'  1  1  0  1.013  0.013  0  0  1.013  0.113  0  0.02  0  0  1.65  1.65  3  0.1  -0.1  0  0  /
  44 'GENROU'  2  5.357600  0.048800  1.380400  0.068000  3.155422  0.000000  1.689100
  1.612200  0.276600  0.488300  0.200000  0.149400  0.070600  1.789000  /
  44 'ESST4B'  2  0  34.08  7.8664  6  -6  0.01  1  0  1  -1  0  4.4666  0  8.7145  0.1138  0  0  /
  44 'IEEEG1'  2 0 0  11.3465  0  0  0.1  1  -1  0.9046  0  0.4531  0.3259  0  0  0.7104  0  0.4  0.4714  0  0  0  0  /
  44 'IEEEST'  2  1  0  1.013  0.013  0  0  1.013  0.113  0  0.02  0  0  1.65  1.65  3  0.1  -0.1  0  0  /
  44 'GENROU'  3  4.587500  0.048500  1.297800  0.054100  4.470137  0.000000  1.716000
  1.637300  0.217900  0.615700  0.158900  0.117500  0.039600  1.106200  /
  44 'IEEET1'  3  0  400  0.0493  7  -7  0  0.6769  0.035  1  0  1.9388  0.4969  2.5851  0.8058  /
  44 'IEEEG1'  3 0 0  20  0.3  0  0.1  0.4222  -0.4222  1.4622  0  0.315  0.257  0  4.8101  0.5381  0  0  0  0  0  0  0  /
  44 'IEEEST'  3  1  0  1.013  0.013  0  0  1.013  0.113  0  0.02  0  0  1.65  1.65  3  0.1  -0.1  0  0  /
  45 'GENROU'  1  7.567400  0.020100  0.697400  0.052200  2.162956  0.000000  1.727800
  1.648300  0.318500  0.232900  0.229300  0.172200  0.054800  1.440700  /
  45 'ESAC1A'  1  0  0  0  356.798  0.1  50  -50  0.8569  0.0291  1  0.2  0.4  1  3.0684  0.358  4.0912  3.222  9  -9  /
  45 'IEEEG1'  1 0 0  20  0  0  0.2  0.4935  -0.4935  1.0253  0  0.2237  1  0  3.9867  0.1785  0  0.4  0.3  0  0  0  0  /
  45 'IEEEST'  1  1  0  1.013  0.013  0  0  1.013  0.113  0  0.02  0  0  1.65  1.65  3  0.1  -0.1  0  0  /
  45 'GENROU'  2  7.614000  0.059200  0.839400  0.068700  3.430895  0.000000  2.237300
  2.123200  0.418800  0.373300  0.299600  0.226800  0.145900  3.445300  /
  45 'ESST4B'  2  0  3.7656  1.5389  6  -6  0.01  1  0  4.6  -4.6  0  1  0  8.3872  0.063  0  0  /
  45 'IEEEG1'  2 0 0  17.2585  0.2878  0  0.1  2  -2  1.1014  0  0.2654  0.2916  0  4.7691  0.2225  0  0  0  0  0  0  0  /
  45 'IEEEST'  2  1  0  1.013  0.013  0  0  1.013  0.113  0  0.02  0  0  1.65  1.65  3  0.1  -0.1  0  0  /
  55 'GENROU'  1  8.765400  0.037000  0.636700  0.063700  4.175086  0.000000  2.019400
  1.920100  0.355300  0.586000  0.255200  0.192300  0.129100  3.074600  /
  55 'IEEET1'  1  0.06  400  0.2  1  -1  0  0.5  0.1009  0.35  0  2.2558  0.1135  3.0077  0.3754  /
  55 'IEEEG1'  1 0 0  13.6678  0.3  0  0.15  0.4372  -0.4372  0.8065  0  0.3881  0.33  0  0  0  0  0.5  0.5221  0  0  0  0  /
  55 'IEEEST'  1  1  0  1.013  0.013  0  0  1.013  0.113  0  0.02  0  0  1.65  1.65  3  0.1  -0.1  0  0  /
  56 'GENROU'  1  8.744600  0.055700  0.561200  0.043000  2.264673  0.000000  1.553800
  1.486100  0.240200  0.505600  0.174500  0.129600  0.158700  3.727200  /
  56 'IEEET1'  1  0.06  25  0.035  1  -1  0  0.5  0.08  1  0  1.8734  0.0277  2.4979  0.2791  /
  56 'IEEEG1'  1 0 0  12.1657  0  0  0.1  1  -1  1.3821  0  0.4314  0.2997  0  0  0  0  0.5  0.3  0  0  0  0  /
  56 'IEEEST'  1  1  0  1.013  0.013  0  0  1.013  0.113  0  0.02  0  0  1.65  1.65  3  0.1  -0.1  0  0  /
  56 'GENROU'  2  4.910300  0.043000  0.823200  0.069400  4.457762  0.000000  2.063700
  1.961400  0.399700  0.794900  0.286200  0.216400  0.050100  1.336600  /
  56 'ESAC6A'  2  0.02  546.362  14.695  3  0.1077  0.9  100  -100  100  -100  0.5  0  0  100  0  0  0  0  1  5.5379  0.0449  7.3839  0.2993  /
  56 'IEEEG1'  2 0 0  25  0  0  0.1  0.1  -0.1  0.748  0  0.1627  0.3093  0  0  0.1459  0  0  0  0  0  0  0  /
  56 'IEEEST'  2  1  0  1.013  0.013  0  0  1.013  0.113  0  0.02  0  0  1.65  1.65  3  0.1  -0.1  0  0  /
  57 'GENROU'  1  9.414500  0.032300  0.778300  0.069100  1.773730  0.000000  1.522900
  1.457300  0.199700  0.407800  0.146100  0.107600  0.075700  1.900400  /
  57 'ESST4B'  1  0  40.5513  2.6538  6  -6  0.01  1  0  1  -1  0  4.9885  0  6.7487  0.0622  0  0  /
  57 'IEEEG1'  1 0 0  18.8803  0.2211  0  0.5  0.1857  -0.1857  1.6865  0  0.3593  0.313  0  0  0.182  0  0.5  0.3  0  0  0  0  /
  57 'IEEEST'  1  1  0  1.013  0.013  0  0  1.013  0.113  0  0.02  0  0  1.65  1.65  3  0.1  -0.1  0  0  /
  58 'GENROU'  1  7.454500  0.021700  0.804700  0.048000  1.803110  0.000000  1.737500
  1.657300  0.183100  0.232600  0.134500  0.098600  0.184500  4.294800  /
  58 'ESAC6A'  1  0.02  460.614  13.3099  5  0.23  0.9  9.08  -9.08  9.08  -9.08  3.215  100  0  100  0  0  0  0  1  4.3592  0.147  5.8123  0.9799  /
  58 'IEEEG1'  1 0 0  25  0  0  0.15  0.1  -0.1  0.6233  0  0.1918  1  0  0.8325  0.3394  0  0.4  0.3212  0  0  0  0  /
  58 'IEEEST'  1  1  0  1.013  0.013  0  0  1.013  0.113  0  0.02  0  0  1.65  1.65  3  0.1  -0.1  0  0  /
  58 'GENROU'  2  6.044700  0.047300  1.423800  0.073600  3.106071  0.000000  1.851100
  1.763200  0.195600  0.748800  0.143300  0.105400  0.093400  2.290800  /
  58 'ESST4B'  2  0  13.7017  3.3737  1  -1  0.01  1  0  1  -1  0  5.1826  0  7.155  0.0418  0  0  /
  58 'IEEEG1'  2 0 0  20  0  0  0.5  0.3705  -0.3705  1.0934  0  0.2966  0.3013  0  6.3769  0.2013  0  0.4  0.3  0  0  0  0  /
  58 'IEEEST'  2  1  0  1.013  0.013  0  0  1.013  0.113  0  0.02  0  0  1.65  1.65  3  0.1  -0.1  0  0  /
  58 'GENROU'  3  7.254100  0.030600  0.776400  0.065500  4.378384  0.000000  2.294400
  2.176400  0.523200  0.673400  0.372800  0.283600  0.062200  1.602600  /
  58 'ESAC6A'  3  0.02  529.189  24.4113  3  0.1426  0.9  9.08  -9.08  9.08  -9.08  3.215  100  0  100  0  0  0  0  1  5.2854  0.1332  7.0472  0.8878  /
  58 'IEEEG1'  3 0 0  20  0.2111  0  0.5  0.1  -0.1  1.1925  0  0.4549  0.3119  0  7.5701  0  0  0  0  0  0  0  0  /
  58 'IEEEST'  3  1  0  1.013  0.013  0  0  1.013  0.113  0  0.02  0  0  1.65  1.65  3  0.1  -0.1  0  0  /
  59 'GENROU'  1  7.659900  0.032600  1.083100  0.044600  2.295642  0.000000  2.367700
  2.244700  0.254000  0.424300  0.184200  0.137100  0.149600  3.527000  /
  59 'ESAC1A'  1  0  0  0  750  0.02  16.9648  -16.9648  0.9615  0.0158  1  0.2  0.4  1  5.3313  0.2239  7.1083  2.0151  9  -9  /
  59 'IEEEG1'  1 0 0  20  0.2  0  0.15  2  -2  0.6587  0  0.3522  0.3255  0  10  0  0  0  0  0  0  0  0  /
  59 'IEEEST'  1  1  0  1.013  0.013  0  0  1.013  0.113  0  0.02  0  0  1.65  1.65  3  0.1  -0.1  0  0  /
  78 'GENROU'  1  8.537900  0.020600  0.576100  0.060100  4.289271  0.000000  2.060100
  1.958000  0.193900  0.666300  0.142000  0.104400  0.108000  2.610500  /
  78 'ESST4B'  1  0  38.4883  1.9183  6  -6  0.01  1  0  1  -1  0  1  0  6.6022  0.1181  0  0  /
  78 'IEEEG1'  1 0 0  25  0.2  0  0.1  0.1  -0.1  1.0366  0  0.13  0.2682  0  0  0  0  0  0  0  0  0  0  /
  78 'IEEEST'  1  1  0  1.013  0.013  0  0  1.013  0.113  0  0.02  0  0  1.65  1.65  3  0.1  -0.1  0  0  /
  78 'GENROU'  2  4.489500  0.059600  1.103600  0.044800  1.756341  0.000000  1.822600
  1.736600  0.352100  0.601900  0.252900  0.190500  0.105900  2.564100  /
  78 'ESAC1A'  2  0.02  0  0  337.358  0.02  15.5171  -15.5171  1.1609  0.0136  1  0.2  1  1  2.6575  0.079  3.5433  0.7106  9  -9  /
  78 'IEEEG1'  2 0 0  20  0  0  0.2  0.1  -0.1  0.9709  0  0.1513  1  0  10  0.3606  0  0.4  0.3  0  0  0  0  /
  78 'IEEEST'  2  1  0  1.013  0.013  0  0  1.013  0.113  0  0.02  0  0  1.65  1.65  3  0.1  -0.1  0  0  /
  79 'GENROU'  1  8.546100  0.042400  1.399800  0.058100  1.610950  0.000000  2.348500
  2.226800  0.549500  0.496400  0.391200  0.298000  0.189700  4.409200  /
  79 'ESST4B'  1  0  1.4447  5.3441  6  -6  0.01  1  0  1  -1  0  6.2082  0  8.2734  0.0459  0  0  /
  79 'IEEEG1'  1 0 0  20  0.2  0  0.15  0.1  -0.1  1.3474  0  0.2704  0.3074  0  0.8371  0.4046  0  0  0  0  0  0  0  /
  79 'IEEEST'  1  1  0  1.013  0.013  0  0  1.013  0.113  0  0.02  0  0  1.65  1.65  3  0.1  -0.1  0  0  /
  79 'GENROU'  2  8.901100  0.024700  1.350000  0.042800  1.650841  0.000000  1.514700
  1.449600  0.313000  0.490600  0.225500  0.169300  0.154500  3.633500  /
  79 'IEEET1'  2  0.06  400  0.055  1  -1  0  0.3486  0.08  0.35  0  2.8195  0.1663  3.7593  0.4347  /
  79 'IEEEG1'  2 0 0  20  0.3  0  0.3  0.1  -0.1  1.0618  0  0.3407  1  0  0.5957  0.1968  0  0.5  0.3547  0  0  0  0  /
  79 'IEEEST'  2  1  0  1.013  0.013  0  0  1.013  0.113  0  0.02  0  0  1.65  1.65  3  0.1  -0.1  0  0  /
  79 'GENROU'  3  8.605100  0.037800  1.233500  0.063000  4.253219  0.000000  1.483000
  1.420100  0.222100  0.358100  0.161800  0.119800  0.058100  1.512600  /
  79 'IEEET1'  3  0  400  0.2  1  -1  0  0.5  0.0979  1  0  2.2014  0.1195  2.9352  0.3821  /
  79 'IEEEG1'  3 0 0  20  0.2504  0  0.2  0.1  -0.1  1.2103  0  0.1574  0.342  0  10  0  0  0.4  0.4569  0  0  0  0  /
  79 'IEEEST'  3  1  0  1.013  0.013  0  0  1.013  0.113  0  0.02  0  0  1.65  1.65  3  0.1  -0.1  0  0  /
  82 'GENROU'  1  7.157400  0.042200  1.340600  0.047800  2.273628  0.000000  1.824700
  1.738600  0.356600  0.760400  0.256100  0.193000  0.134500  3.192900  /
  82 'EXAC1'  1  0  0  0  400  0.02  6.1029  -6.1029  1.1  0.035  1  0.2359  0.5  1  3.3131  0.0351  4.4175  0.1754  /
  82 'IEEEG1'  1 0 0  20  0  0  0.1  0.1  -0.1  1.5114  0  0.1038  0.2739  0  7.6221  0.1174  0  0.5  0.3  0  0  0  0  /
  82 'IEEEST'  1  1  0  1.013  0.013  0  0  1.013  0.113  0  0.02  0  0  1.65  1.65  3  0.1  -0.1  0  0  /
  82 'GENROU'  2  7.459000  0.034800  0.686900  0.061900  2.105425  0.000000  1.742700
  1.662100  0.213500  0.204400  0.155800  0.115100  0.091700  2.252200  /
  82 'ESST4B'  2  0  4.5028  3.7495  6  -6  0.01  1  0  1  -1  0  1  0  7.5811  0.0802  0  0  /
  82 'IEEEG1'  2 0 0  20  0  0  0.3  2  -2  1.0901  0  0.3674  1  0  0  0.705  0  0  0  0  0  0  0  /
  82 'IEEEST'  2  1  0  1.013  0.013  0  0  1.013  0.113  0  0.02  0  0  1.65  1.65  3  0.1  -0.1  0  0  /
  104 'GENROU'  1  6.989500  0.035700  1.271400  0.070700  4.492640  0.000000  1.884200
  1.794000  0.261500  0.551100  0.189400  0.141200  0.117900  2.829500  /
  104 'IEEET1'  1  0  400  0.0363  1  -1  0  0.5  0.0709  1  0  2.3853  0.0669  3.1804  0.3231  /
  104 'IEEEG1'  1 0 0  20  0.3  0  0.2  0.1  -0.1  0.5342  0  0.1576  1  0  5.7532  0  0  0.4  0.3  0  0  0  0  /
  104 'IEEEST'  1  1  0  1.013  0.013  0  0  1.013  0.113  0  0.02  0  0  1.65  1.65  3  0.1  -0.1  0  0  /
  105 'GENROU'  1  7.733000  0.049400  1.334800  0.078900  3.672253  0.000000  1.548700
  1.481300  0.259900  0.416000  0.188300  0.140400  0.115500  2.775800  /
  105 'IEEET1'  1  0  25  0.2  1  -1  0  0.9473  0.0975  1  0  2.5217  0.4998  3.3623  0.8091  /
  105 'IEEEG1'  1 0 0  20  0  0  0.15  0.441  -0.441  0.5599  0  0.171  0.3213  0  4.9429  0  0  0  0  0  0  0  0  /
  105 'IEEEST'  1  1  0  1.013  0.013  0  0  1.013  0.113  0  0.02  0  0  1.65  1.65  3  0.1  -0.1  0  0  /
  106 'GENROU'  1  7.169200  0.043500  0.855000  0.054000  1.816381  0.000000  2.142800
  2.035100  0.419600  0.422300  0.300200  0.227300  0.139500  3.303700  /
  106 'EXAC1'  1  0.005  0  0  2876  0.02  7.6982  -7.6982  0.4474  0.035  1  0.293  0.5  1  3.0588  0.0733  4.0784  0.3664  /
  106 'IEEEG1'  1 0 0  20  0.2  0  0.1  0.3349  -0.3349  0.9988  0  0.1153  1  0  0  0  0  0  0  0  0  0  0  /
  106 'IEEEST'  1  1  0  1.013  0.013  0  0  1.013  0.113  0  0.02  0  0  1.65  1.65  3  0.1  -0.1  0  0  /
  107 'GENROU'  1  7.754700  0.024000  1.252800  0.064700  1.919772  0.000000  1.890100
  1.799600  0.420300  0.730700  0.300700  0.227700  0.137300  3.256300  /
  107 'ESAC6A'  1  0.02  453.476  12.6904  2  0.23  0.2  9.08  -9.08  9.08  -9.08  1  0  0  1  1  0.25  0.225  22.5  1  3.068  0.1439  4.0907  0.9592  /
  107 'IEEEG1'  1 0 0  14.1739  0  0  0.1  2  -2  1.2032  0  0.4771  0.3237  0  0.0559  0  0  0.4  0.3  0  0  0  0  /
  107 'IEEEST'  1  1  0  1.013  0.013  0  0  1.013  0.113  0  0.02  0  0  1.65  1.65  3  0.1  -0.1  0  0  /
  116 'GENROU'  1  7.087400  0.041600  1.271800  0.048200  5.036793  0.000000  1.806300
  1.721500  0.194900  0.419000  0.142800  0.105000  0.153300  3.607400  /
  116 'ESST4B'  1  0  5.3502  1.6767  6  -6  0.01  1  0  1  -1  0  1  0  6.1614  0.0612  0  0  /
  116 'IEEEG1'  1 0 0  11.4362  0  0  0.3  0.1  -0.1  0.7622  0  0.197  0.2754  0  0.5864  0  0  0.5  0.3  0  0  0  0  /
  116 'IEEEST'  1  1  0  1.013  0.013  0  0  1.013  0.113  0  0.02  0  0  1.65  1.65  3  0.1  -0.1  0  0  /
  117 'GENROU'  1  5.988700  0.037500  0.984100  0.070400  2.162553  0.000000  2.206300
  2.094300  0.293200  0.617000  0.211700  0.158500  0.145500  3.435500  /
  117 'ESST4B'  1  0  9.3748  1.3242  6  -6  0.01  1  0  4.6  -4.6  0  4.8552  0  6.6999  0.0851  0  0  /
  117 'IEEEG1'  1 0 0  20  0.2178  0  0.1  0.1  -0.1  0.7794  0  0.2032  0.3022  0  1.5545  0.228  0  0  0  0  0  0  0  /
  117 'IEEEST'  1  1  0  1.013  0.013  0  0  1.013  0.113  0  0.02  0  0  1.65  1.65  3  0.1  -0.1  0  0  /
  118 'GENROU'  1  6.730400  0.021700  0.802800  0.075600  4.319658  0.000000  2.151600
  2.043300  0.502600  0.511100  0.358300  0.272400  0.055000  1.444900  /
  118 'IEEET1'  1  0.02  400  0.2  1  -1  0  0.7235  0.08  0.35  0  4.2794  0.0427  5.7059  0.2959  /
  118 'IEEEG1'  1 0 0  20  0  0  0.1  0.1  -0.1  1.4607  0  0.1371  1  0  0  0.2563  0  0.5  0.3  0  0  0  0  /
  118 'IEEEST'  1  1  0  1.013  0.013  0  0  1.013  0.113  0  0.02  0  0  1.65  1.65  3  0.1  -0.1  0  0  /
  125 'GENROU'  1  6.627300  0.056600  1.209300  0.063300  2.592624  0.000000  1.637900
  1.564500  0.268500  0.501300  0.194300  0.145000  0.120300  2.880700  /
  125 'ESAC1A'  1  0.02  0  0  375.815  0.02  50  -50  0.9608  0.014  1  0.2  1  1  2.1613  0.2806  2.8818  2.5258  9  -9  /
  125 'IEEEG1'  1 0 0  20  0  0  0.3  0.2393  -0.2393  1.1686  0  0.3797  1  0  0.7347  0.1469  0  0.4  0.4144  0  0  0  0  /
  125 'IEEEST'  1  1  0  1.013  0.013  0  0  1.013  0.113  0  0.02  0  0  1.65  1.65  3  0.1  -0.1  0  0  /
  126 'GENROU'  1  9.710000  0.027700  1.021500  0.051100  3.086804  0.000000  1.942000
  1.847900  0.391700  0.368100  0.280700  0.212100  0.158400  3.720500  /
  126 'ESST4B'  1  0  24.0585  7.6677  6  -6  0.01  1  0  1  -1  0  1  0  7.128  0.0933  0  0  /
  126 'IEEEG1'  1 0 0  11.1942  0.2  0  0.3  2  -2  1.0408  0  0.4307  1  0  4.7027  0.2399  0  0.4  0.4788  0  0  0  0  /
  126 'IEEEST'  1  1  0  1.013  0.013  0  0  1.013  0.113  0  0.02  0  0  1.65  1.65  3  0.1  -0.1  0  0  /
  126 'GENROU'  2  6.209900  0.029200  0.675200  0.066700  1.724296  0.000000  1.930300
  1.837000  0.421800  0.487000  0.301800  0.228500  0.145900  3.445400  /
  126 'ESAC1A'  2  0  0  0  219.36  0.1  15.2296  -15.2296  0.9135  0.0186  1  0.2  1  1  4.0909  0.3246  5.4546  2.9211  9  -9  /
  126 'IEEEG1'  2 0 0  10.7337  0.2  0  0.1  2  -2  0.9189  0  0.3243  0.2582  0  10  0.681  0  0  0  0  0  0  0  /
  126 'IEEEST'  2  1  0  1.013  0.013  0  0  1.013  0.113  0  0.02  0  0  1.65  1.65  3  0.1  -0.1  0  0  /
  127 'GENROU'  1  6.575800  0.021200  1.003300  0.055200  1.804849  0.000000  2.341500
  2.220300  0.327200  0.600200  0.235500  0.177000  0.061800  1.595000  /
  127 'IEEET1'  1  0.02  400  0.0523  1  -1  0  0.5  0.0713  0.35  0  4.3704  0.1189  5.8272  0.3814  /
  127 'IEEEG1'  1 0 0  20  0.2  0  0.5  0.1  -0.1  0.6751  0  0.3276  0.3256  0  8.8201  0  0  0  0  0  0  0  0  /
  127 'IEEEST'  1  1  0  1.013  0.013  0  0  1.013  0.113  0  0.02  0  0  1.65  1.65  3  0.1  -0.1  0  0  /
  127 'GENROU'  2  7.539900  0.044500  1.091700  0.049500  3.364490  0.000000  2.312400
  2.193200  0.282600  0.652900  0.204200  0.152700  0.052200  1.384000  /
  127 'ESST4B'  2  0  12.7647  5.8172  1  -1  0.01  1  0  1  -1  0  1  0  6.4768  0.0894  0  0  /
  127 'IEEEG1'  2 0 0  20  0  0  0.1  0.1  -0.1  1.0244  0  0.4473  0.2958  0  0  0.4456  0  0  0  0  0  0  0  /
  127 'IEEEST'  2  1  0  1.013  0.013  0  0  1.013  0.113  0  0.02  0  0  1.65  1.65  3  0.1  -0.1  0  0  /
  134 'GENROU'  1  4.639100  0.050100  1.279100  0.074600  3.343138  0.000000  1.611000
  1.539500  0.212300  0.280900  0.155000  0.114500  0.199600  4.626300  /
  134 'ESST4B'  1  0  19.8764  6.7186  6  -6  0.01  1  0  1  -1  0  5.8599  0  7.6695  0.1175  0  0  /
  134 'IEEEG1'  1 0 0  20  0  0  0.2  0.4115  -0.4115  0.7845  0  0.2233  0.2864  0  1.4796  0.212  0  0.5  0.368  0  0  0  0  /
  134 'IEEEST'  1  1  0  1.013  0.013  0  0  1.013  0.113  0  0.02  0  0  1.65  1.65  3  0.1  -0.1  0  0  /
  134 'GENROU'  2  7.367900  0.031700  1.024400  0.064800  2.522530  0.000000  1.794200
  1.710200  0.284600  0.474900  0.205600  0.153800  0.058500  1.521500  /
  134 'ESAC6A'  2  0  583.695  20.9437  2  0.127  0.9  9.08  -9.08  9.08  -9.08  1  100  0  10  0  0  0  0  1  3.9375  0.057  5.25  0.3798  /
  134 'IEEEG1'  2 0 0  20  0.2  0  0.2  0.2325  -0.2325  0.7622  0  0.2819  0.3147  0  5.2376  0  0  0  0  0  0  0  0  /
  134 'IEEEST'  2  1  0  1.013  0.013  0  0  1.013  0.113  0  0.02  0  0  1.65  1.65  3  0.1  -0.1  0  0  /
  135 'GENROU'  1  7.776800  0.039700  1.139500  0.075700  2.490494  0.000000  2.215900
  2.103300  0.382500  0.728300  0.274200  0.207100  0.068300  1.736900  /
  135 'IEEET1'  1  0.02  400  0.045  7  -7  0  0.5  0.1145  0.35  0  3.8157  0.0371  5.0876  0.2896  /
  135 'IEEEG1'  1 0 0  10.3936  0.3  0  0.15  0.4371  -0.4371  1.0206  0  0.3872  0.2522  0  0  0.1896  0  0.4  0.3  0  0  0  0  /
  135 'IEEEST'  1  1  0  1.013  0.013  0  0  1.013  0.113  0  0.02  0  0  1.65  1.65  3  0.1  -0.1  0  0  /
  146 'GENROU'  1  8.869000  0.039400  1.031200  0.066400  3.896055  0.000000  1.670600
  1.595000  0.315800  0.370400  0.227500  0.170800  0.198700  4.605300  /
  146 'ESAC6A'  1  0.02  527.866  23.0353  5  0.23  0.9  9.08  -9.08  9.08  -9.08  3.215  0  0  10  1  0.25  0.225  22.5  1  5.2446  0.0654  6.9928  0.4358  /
  146 'IEEEG1'  1 0 0  20  0.2  0  0.5  0.2333  -0.2333  1.5113  0  0.2413  0.3143  0  5.0261  0  0  0.4  0.516  0  0  0  0  /
  146 'IEEEST'  1  1  0  1.013  0.013  0  0  1.013  0.113  0  0.02  0  0  1.65  1.65  3  0.1  -0.1  0  0  /
  146 'GENROU'  2  9.587100  0.048400  0.518900  0.065700  3.604707  0.000000  1.981500
  1.884700  0.236100  0.223900  0.171600  0.127400  0.084300  2.089000  /
  146 'ESAC6A'  2  0  504.639  24.8111  3  0.2156  0.2  9.08  -9.08  9.08  -9.08  0.5  0  0  1  0  0  0  0  1  4.9181  0.0905  6.5575  0.6031  /
  146 'IEEEG1'  2 0 0  17.8702  0  0  0.2  0.3753  -0.3753  1.529  0  0.1154  0.2909  0  6.4075  0.1141  0  0  0  0  0  0  0  /
  146 'IEEEST'  2  1  0  1.013  0.013  0  0  1.013  0.113  0  0.02  0  0  1.65  1.65  3  0.1  -0.1  0  0  /
  147 'GENROU'  1  8.808600  0.021900  1.373500  0.060500  2.010705  0.000000  1.959000
  1.863800  0.336500  0.591200  0.242000  0.182000  0.185300  4.311800  /
  147 'ESAC1A'  1  0  0  0  750  0.02  13.0885  -13.0885  1.0087  0.0229  1  0.2  0.4  1  2.433  0.0883  3.244  0.7951  9  -9  /
  147 'IEEEG1'  1 0 0  20  0.2  0  0.3  0.1  -0.1  1.0949  0  0.4457  0.3017  0  9.4783  0.4  0  0.4  0.4522  0  0  0  0  /
  147 'IEEEST'  1  1  0  1.013  0.013  0  0  1.013  0.113  0  0.02  0  0  1.65  1.65  3  0.1  -0.1  0  0  /
  148 'GENROU'  1  4.996600  0.057000  1.027300  0.064700  2.372848  0.000000  1.967700
  1.871900  0.351600  0.744400  0.252500  0.190200  0.084400  2.091100  /
  148 'EXAC1'  1  0  0  0  400  0.02  7.1961  -7.1961  0.7152  0.08  1  0.2201  0.5  1  2.051  0.0641  2.7347  0.3204  /
  148 'IEEEG1'  1 0 0  18.8586  0.2  0  0.3  0.1  -0.1  0.7047  0  0.4676  0.3238  0  1.39  0.2882  0  0.4  0.3  0  0  0  0  /
  148 'IEEEST'  1  1  0  1.013  0.013  0  0  1.013  0.113  0  0.02  0  0  1.65  1.65  3  0.1  -0.1  0  0  /
  148 'GENROU'  2  5.566400  0.051600  1.093100  0.047900  3.845487  0.000000  1.634000
  1.560900  0.306500  0.615600  0.221000  0.165700  0.066600  1.699900  /
  148 'ESAC1A'  2  0  0.02  0  362.528  0.02  13.367  -13.367  1.0454  0.0225  1  0.2  1  1  2.4391  0.236  3.2522  2.124  9  -9  /
  148 'IEEEG1'  2 0 0  13.6575  0.2  0  0.5  0.1726  -0.1726  0.9096  0  0.4107  1  0  10  0.4  0  0  0  0  0  0  0  /
  148 'IEEEST'  2  1  0  1.013  0.013  0  0  1.013  0.113  0  0.02  0  0  1.65  1.65  3  0.1  -0.1  0  0  /
  148 'GENROU'  3  8.368300  0.040000  1.031100  0.067900  1.874259  0.000000  1.442300
  1.382200  0.211600  0.500800  0.154500  0.114100  0.108300  2.616900  /
  148 'ESAC1A'  3  0  0  0  750  0.02  15.2941  -15.2941  0.836  0.0122  1  0.2  1  1  3.1443  0.0228  4.1925  0.2054  9  -9  /
  148 'IEEEG1'  3 0 0  10  0.3  0  0.2  0.3324  -0.3324  1.1037  0  0.3233  0.3333  0  6.606  0  0  0.4  0.3  0  0  0  0  /
  148 'IEEEST'  3  1  0  1.013  0.013  0  0  1.013  0.113  0  0.02  0  0  1.65  1.65  3  0.1  -0.1  0  0  /
  148 'GENROU'  4  6.426300  0.037700  1.104500  0.071700  2.067439  0.000000  2.414600
  2.288400  0.404200  0.434800  0.289400  0.218900  0.198500  4.600800  /
  148 'ESAC6A'  4  0  550.261  17.6578  3  0.23  0.9  100  -100  100  -100  1  0  0  10  1  0.25  0.225  22.5  1  4.6061  0.0433  6.1415  0.2884  /
  148 'IEEEG1'  4 0 0  18.6859  0  0  0.2  0.1  -0.1  0.6715  0  0.2127  0.2531  0  3.2729  0  0  0  0  0  0  0  0  /
  148 'IEEEST'  4  1  0  1.013  0.013  0  0  1.013  0.113  0  0.02  0  0  1.65  1.65  3  0.1  -0.1  0  0  /
  150 'GENROU'  1  9.132000  0.051800  0.517000  0.050800  4.547617  0.000000  1.657200
  1.582500  0.294700  0.544100  0.212700  0.159300  0.027800  0.845600  /
  150 'EXAC1'  1  0  0  0  400  0.02  7.151  -7.151  0.7556  0.035  1  0.2027  0.5  1  1.6604  0.0902  2.2139  0.4512  /
  150 'IEEEG1'  1 0 0  20  0  0  0.1  0.2616  -0.2616  1.8821  0  0.3595  1  0  0  0.312  0  0  0  0  0  0  0  /
  150 'IEEEST'  1  1  0  1.013  0.013  0  0  1.013  0.113  0  0.02  0  0  1.65  1.65  3  0.1  -0.1  0  0  /
  151 'GENROU'  1  4.563200  0.057000  0.714200  0.048100  4.862426  0.000000  1.506800
  1.442300  0.291900  0.415100  0.210700  0.157800  0.073600  1.853500  /
  151 'IEEET1'  1  0  25  0.0562  7  -7  0  0.5  0.1165  1  0  3.818  0.0104  5.0907  0.2597  /